*Heading
** Job name: slide Model name: Model-1
** Generated by: Abaqus/CAE 2023
*Preprint, echo=NO, model=NO, history=NO, contact=NO
**
** PARTS
**
*Part, name=Part-2
*Node
      1,   50.9102859,          35.,           0.
      2,   50.7282257,          35.,           0.
      3,   50.3641129,          35.,           0.
      4,   51.2743988,          35.,           0.
      5,          50.,          35.,           0.
      6,   30.6019669,   25.0065575,           0.
      7,   31.2036495,   25.0262299,           0.
      8,     31.80476,   25.0590057,           0.
      9,    32.405014,   25.1048698,           0.
     10,   33.0041237,   25.1637993,           0.
     11,   33.6018105,   25.2357693,           0.
     12,   34.1977882,   25.3207436,           0.
     13,   34.7917709,   25.4186821,           0.
     14,   35.3834801,   25.5295372,           0.
     15,   35.9726334,   25.6532593,           0.
     16,    36.363842,   25.7428589,           0.
     17,   36.9481163,    25.887888,           0.
     18,   37.5290909,   26.0456123,           0.
     19,   38.1064911,   26.2159557,           0.
     20,   38.6800423,     26.39884,           0.
** ... 3040 like lines cut
*Element, type=C3D8R
   1,  490,  700,    5,  428, 2020, 2230, 1535, 1958
   2,  751, 1422, 1368, 1174, 2281, 2952, 2898, 2704
   3, 1426,  898,  984,  958, 2956, 2428, 2514, 2488
   4, 1427,  920,  764, 1428, 2957, 2450, 2294, 2958
   5,  760,  838,  997,  918, 2290, 2368, 2527, 2448
   6, 1079,  130, 1179, 1279, 2609, 1660, 2709, 2809
   7,  916,  753,  834, 1289, 2446, 2283, 2364, 2819
   8, 1087,  986, 1051,  779, 2617, 2516, 2581, 2309
   9,  152,  891,  757,  651, 1682, 2421, 2287, 2181
  10,  892,  953,  829,  743, 2422, 2483, 2359, 2273
  11,  184,  580,  573,  783, 1714, 2110, 2103, 2313
  12,  711,  607,  580,  184, 2241, 2137, 2110, 1714
  13,  589,  196,  715,  786, 2119, 1726, 2245, 2316
  14,  208,  629,  399,  400, 1738, 2159, 1929, 1930
  15,  398,   31,  600,  604, 1928, 1561, 2130, 2134
  16,  396,   30,  222,  612, 1926, 1560, 1752, 2142
  17, 1096, 1043,  224, 1142, 2626, 2573, 1754, 2672
  18,  393,  394,  708,  586, 1923, 1924, 2238, 2116
  19,  937,  591,  621,  681, 2467, 2121, 2151, 2211
  20,  579,  688,  681,  621, 2109, 2218, 2211, 2151
** ... 1389 like lines cut
*Nset, nset=slide, generate
    1,  3060,     1
*Elset, elset=slide, generate
    1,  1409,     1
** Section: soil
*Solid Section, elset=slide, material=Material-1
,
*End Part
**  
*Part, name=Part-3
*Node
      1,   14.3960171,    5.3519516,           0.
      2,   18.6800404,   6.39883947,           0.
      3,   22.7429314,   8.11399364,           0.
      4,   24.6588135,   9.20915318,           0.
      5,   28.1984177,   11.8397493,           0.
      6,          10.,           5.,           0.
      7,   31.2743969,          15.,           0.
      8,          50.,          15.,           0.
      9,          50.,           0.,           0.
     10,           0.,           0.,           0.
     11,           0.,           5.,           0.
     12,   12.2050419,   5.08812857,           0.
     13,   16.5589504,   5.78978634,           0.
     14,   20.7457619,   7.17522621,           0.
     15,    26.481184,   10.4537182,           0.
     16,   29.7995605,   13.3584061,           0.
     17,    33.949482,          15.,           0.
     18,   36.6245689,          15.,           0.
     19,   39.2996559,          15.,           0.
     20,   41.9747429,          15.,           0.
** ... 224 like lines cut
*Element, type=C3D8R
 1,  87,  28,  29,  61, 209, 150, 151, 183
 2,  31,  66,  65,  30, 153, 188, 187, 152
 3,  58,  14,   2, 115, 180, 136, 124, 237
 4,  36,  68,  67,  35, 158, 190, 189, 157
 5,   5,  15,  59,  53, 127, 137, 181, 175
 6, 120,  89, 122, 110, 242, 211, 244, 232
 7,  17,  79,  80,  18, 139, 201, 202, 140
 8, 115,  55,  56,  88, 237, 177, 178, 210
 9,  13,   1,  56,  55, 135, 123, 178, 177
10,   3,  14,  58,  54, 125, 136, 180, 176
11,  57,  59,  15,   4, 179, 181, 137, 126
12,  16,   5,  53,  60, 138, 127, 175, 182
13,  79,  17,   7,  51, 201, 139, 129, 173
14, 112, 111, 100,  99, 234, 233, 222, 221
15,  82,  81, 102, 103, 204, 203, 224, 225
16,  44,  76,  75,  43, 166, 198, 197, 165
17, 105,  95, 106,  98, 227, 217, 228, 220
18,  63,  26,  27,  64, 185, 148, 149, 186
19,  64,  27,   8,  22, 186, 149, 130, 144
20,  78,  46,   9,  23, 200, 168, 131, 145
** ... 76 like lines cut
*Nset, nset=base, generate
   1,  244,    1
*Elset, elset=base, generate
  1,  96,   1
** Section: soil
*Solid Section, elset=base, material=Material-1
,
*End Part
**  
**
** ASSEMBLY
**
*Assembly, name=Assembly
**  
*Instance, name=Part-2-1, part=Part-2
        -20.,         -20.,           0.
*End Instance
**  
*Instance, name=Part-3-1, part=Part-3
*End Instance
**  
*Node
      1,           0.,           0.,           1.
*Nset, nset=rp1
 1,
*Nset, nset=_PickedSet15, internal
 1,
** Constraint: Constraint-1
*Rigid Body, ref node=_PickedSet15, elset=Part-3-1.base
*End Assembly
*Amplitude, name=Amp-1
             0.,              0.,              1.,              1.
** 
** MATERIALS
** 
*Material, name=Material-1
*Density
2000.,
*Elastic
 1e+07, 0.25
** 
** INTERACTION PROPERTIES
** 
*Surface Interaction, name=IntProp-1
*Friction
 0.2,
*Surface Behavior, pressure-overclosure=HARD
** 
** BOUNDARY CONDITIONS
** 
** Name: BC-1 Type: Symmetry/Antisymmetry/Encastre
*Boundary
rp1, ENCASTRE
** 
** INTERACTIONS
** 
** Interaction: Int-1
*Contact, op=NEW
*Contact Inclusions, ALL EXTERIOR
*Contact Property Assignment
 ,  , IntProp-1
** ----------------------------------------------------------------
** 
** STEP: Step-1
** 
*Step, name=Step-1, nlgeom=YES
*Dynamic, Explicit
, 20.
*Bulk Viscosity
0.06, 1.2
** 
** LOADS
** 
** Name: Load-1   Type: Gravity
*Dload, amplitude=Amp-1
, GRAV, 9.8, 0., -1., 0.
** 
** OUTPUT REQUESTS
** 
*Restart, write, number interval=1, time marks=NO
** 
** FIELD OUTPUT: F-Output-1
** 
*Output, field, variable=PRESELECT
** 
** HISTORY OUTPUT: H-Output-1
** 
*Output, history, variable=PRESELECT
*End Step
